20
Lattice="10.4342 0.0 0.0 0.0 4.7905 0.0 0.0 0.0 17.761" Properties=species:S:1:pos:R:3 pbc="T T T"
Cs       4.33687089       1.19762500      11.91585490
Cs       0.88022911       3.59287500       3.03535490
Cs       6.09732911       3.59287500       5.84514510
Cs       9.55397089       1.19762500      14.72564510
I        1.70307012       1.19762500       0.02841760
I        3.51402988       3.59287500       8.90891760
I        8.73112988       3.59287500      17.73258240
I        6.92017012       1.19762500       8.85208240
I        3.12086922       1.19762500       5.10255769
I        2.09623078       3.59287500      13.98305769
I        7.31333078       3.59287500      12.65844231
I        8.33796922       1.19762500       3.77794231
I        0.33295532       1.19762500      10.91395689
I        4.88414468       3.59287500       2.03345689
I       10.10124468       3.59287500       6.84704311
I        5.55005532       1.19762500      15.72754311
Pb       1.67354134       1.19762500       7.77878517
Pb       3.54355866       3.59287500      16.65928517
Pb       8.76065866       3.59287500       9.98221483
Pb       6.89064134       1.19762500       1.10171483
